Version 4
SHEET 1 1192 680
WIRE 320 -320 240 -320
WIRE 464 -320 384 -320
WIRE -192 -272 -304 -272
WIRE -128 -272 -192 -272
WIRE 288 -272 -128 -272
WIRE 464 -272 464 -320
WIRE 464 -272 400 -272
WIRE 560 -272 464 -272
WIRE 736 -272 624 -272
WIRE 784 -272 736 -272
WIRE 832 -272 784 -272
WIRE 288 -256 288 -272
WIRE 400 -256 400 -272
WIRE 240 -160 240 -320
WIRE 288 -160 288 -176
WIRE 288 -160 240 -160
WIRE 400 -160 400 -176
WIRE 464 -160 400 -160
WIRE -304 -112 -304 -272
WIRE 240 -112 240 -160
WIRE 736 -112 736 -272
WIRE 832 -112 832 -272
WIRE -192 -96 -192 -272
WIRE 80 -32 48 -32
WIRE 192 -32 160 -32
WIRE 240 16 240 -16
WIRE 464 16 464 -160
WIRE -304 128 -304 -32
WIRE -192 128 -192 -32
WIRE -192 128 -304 128
WIRE 240 128 240 96
WIRE 240 128 -192 128
WIRE 464 128 464 96
WIRE 464 128 240 128
WIRE 736 128 736 -48
WIRE 736 128 464 128
WIRE 832 128 832 -32
WIRE 832 128 736 128
WIRE 464 144 464 128
WIRE 48 192 48 -32
WIRE 48 304 48 272
FLAG 48 304 0
FLAG -128 -272 Vin
FLAG 784 -272 Vout
FLAG 464 144 0
SYMBOL schottky 560 -256 R270
WINDOW 0 32 32 VTop 2
WINDOW 3 0 32 VBottom 2
SYMATTR InstName D1
SYMATTR Value 1N5818
SYMATTR Description Diode
SYMATTR Type diode
SYMBOL voltage 48 176 R0
WINDOW 0 -52 12 Left 2
WINDOW 3 -430 208 Left 2
WINDOW 123 0 0 Left 2
WINDOW 39 0 0 Left 2
SYMATTR InstName V2
SYMATTR Value PULSE(0 3.3 0 1n 1n 0.55u 2u 1Meg)
SYMBOL nmos 192 -112 R0
SYMATTR InstName M2
SYMATTR Value IRLML6344
SYMBOL ind2 416 -160 R180
WINDOW 0 36 80 Left 2
WINDOW 3 36 40 Left 2
SYMATTR InstName L2
SYMATTR Value 20µ
SYMATTR Type ind
SYMBOL ind2 272 -272 R0
SYMATTR InstName L3
SYMATTR Value 20µ
SYMATTR Type ind
SYMBOL cap 384 -336 R90
WINDOW 0 0 32 VBottom 2
WINDOW 3 32 32 VTop 2
SYMATTR InstName C3
SYMATTR Value 1µ
SYMBOL res 224 0 R0
SYMATTR InstName R7
SYMATTR Value 0
SYMBOL res 448 0 R0
SYMATTR InstName R8
SYMATTR Value 0
SYMBOL res 176 -48 R90
WINDOW 0 0 56 VBottom 2
WINDOW 3 32 56 VTop 2
SYMATTR InstName R1
SYMATTR Value 10
SYMBOL cap 720 -112 R0
SYMATTR InstName C1
SYMATTR Value 10µ
SYMBOL cap -208 -96 R0
SYMATTR InstName C2
SYMATTR Value 10µ
SYMBOL voltage -304 -128 R0
WINDOW 123 0 0 Left 2
WINDOW 39 24 44 Left 2
SYMATTR SpiceLine Rser=0
SYMATTR InstName V1
SYMATTR Value 15
SYMBOL res 816 -128 R0
SYMATTR InstName R2
SYMATTR Value 5
TEXT -728 120 Left 2 !.tran 0 1030u 1m
TEXT 1016 -176 Left 2 !K1 L2 L3 0.05
TEXT 1024 -232 Left 2 !.ic V(Vout)=6
